<?xml version="1.0" encoding="UTF-8"?>

<!-- generated on 06/26/19 01:10:54 by Eclipse SUMO netconvert Version 1.2.0
<configuration xmlns:xsi="http://www.w3.org/2001/XMLSchema-instance" xsi:noNamespaceSchemaLocation="http://sumo.dlr.de/xsd/netconvertConfiguration.xsd">

    <input>
        <osm-files value="map.osm"/>
    </input>

    <output>
        <output-file value="santry.net.xml"/>
    </output>

    <projection>
        <proj.utm value="true"/>
    </projection>

</configuration>
-->

<net version="1.1" junctionCornerDetail="5" limitTurnSpeed="5.50" xmlns:xsi="http://www.w3.org/2001/XMLSchema-instance" xsi:noNamespaceSchemaLocation="http://sumo.dlr.de/xsd/net_file.xsd">

    <location netOffset="-681897.85,-5919293.48" convBoundary="0.00,0.00,1540.82,1432.62" origBoundary="-6.263846,53.391090,-6.240607,53.403984" projParameter="+proj=utm +zone=29 +ellps=WGS84 +datum=WGS84 +units=m +no_defs"/>

    <type id="highway.bridleway" priority="1" numLanes="1" speed="2.78" allow="pedestrian" oneway="1" width="2.00"/>
    <type id="highway.bus_guideway" priority="1" numLanes="1" speed="27.78" allow="bus" oneway="1"/>
    <type id="highway.cycleway" priority="1" numLanes="1" speed="8.33" allow="bicycle" oneway="0" width="1.00"/>
    <type id="highway.footway" priority="1" numLanes="1" speed="2.78" allow="pedestrian" oneway="1" width="2.00"/>
    <type id="highway.ford" priority="1" numLanes="1" speed="2.78" allow="army" oneway="0"/>
    <type id="highway.living_street" priority="2" numLanes="1" speed="2.78" disallow="tram rail_urban rail rail_electric ship" oneway="0"/>
    <type id="highway.motorway" priority="14" numLanes="2" speed="39.44" allow="private emergency authority army vip passenger hov taxi bus coach delivery truck trailer motorcycle evehicle custom1 custom2" oneway="1"/>
    <type id="highway.motorway_link" priority="9" numLanes="1" speed="22.22" allow="private emergency authority army vip passenger hov taxi bus coach delivery truck trailer motorcycle evehicle custom1 custom2" oneway="1"/>
    <type id="highway.path" priority="1" numLanes="1" speed="2.78" allow="bicycle pedestrian" oneway="1" width="2.00"/>
    <type id="highway.pedestrian" priority="1" numLanes="1" speed="2.78" allow="pedestrian" oneway="1" width="2.00"/>
    <type id="highway.primary" priority="12" numLanes="2" speed="27.78" disallow="tram rail_urban rail rail_electric ship" oneway="0"/>
    <type id="highway.primary_link" priority="7" numLanes="1" speed="22.22" disallow="tram rail_urban rail rail_electric ship" oneway="0"/>
    <type id="highway.raceway" priority="15" numLanes="2" speed="83.33" allow="vip" oneway="0"/>
    <type id="highway.residential" priority="3" numLanes="1" speed="13.89" disallow="tram rail_urban rail rail_electric ship" oneway="0"/>
    <type id="highway.secondary" priority="11" numLanes="2" speed="27.78" disallow="tram rail_urban rail rail_electric ship" oneway="0"/>
    <type id="highway.secondary_link" priority="6" numLanes="1" speed="22.22" disallow="tram rail_urban rail rail_electric ship" oneway="0"/>
    <type id="highway.service" priority="1" numLanes="1" speed="5.56" allow="delivery bicycle pedestrian" oneway="0"/>
    <type id="highway.stairs" priority="1" numLanes="1" speed="1.39" allow="pedestrian" oneway="1" width="2.00"/>
    <type id="highway.step" priority="1" numLanes="1" speed="1.39" allow="pedestrian" oneway="1" width="2.00"/>
    <type id="highway.steps" priority="1" numLanes="1" speed="1.39" allow="pedestrian" oneway="1" width="2.00"/>
    <type id="highway.tertiary" priority="10" numLanes="1" speed="22.22" disallow="tram rail_urban rail rail_electric ship" oneway="0"/>
    <type id="highway.tertiary_link" priority="5" numLanes="1" speed="22.22" disallow="tram rail_urban rail rail_electric ship" oneway="0"/>
    <type id="highway.track" priority="1" numLanes="1" speed="5.56" disallow="tram rail_urban rail rail_electric ship" oneway="0"/>
    <type id="highway.trunk" priority="13" numLanes="2" speed="27.78" disallow="tram rail_urban rail rail_electric bicycle pedestrian ship" oneway="0"/>
    <type id="highway.trunk_link" priority="8" numLanes="1" speed="22.22" disallow="tram rail_urban rail rail_electric bicycle pedestrian ship" oneway="0"/>
    <type id="highway.unclassified" priority="4" numLanes="1" speed="13.89" disallow="tram rail_urban rail rail_electric ship" oneway="0"/>
    <type id="highway.unsurfaced" priority="1" numLanes="1" speed="8.33" disallow="tram rail_urban rail rail_electric ship" oneway="0"/>
    <type id="railway.light_rail" priority="19" numLanes="1" speed="27.78" allow="rail_urban" oneway="1"/>
    <type id="railway.preserved" priority="16" numLanes="1" speed="27.78" allow="rail" oneway="1"/>
    <type id="railway.rail" priority="20" numLanes="1" speed="83.33" allow="rail rail_electric" oneway="1"/>
    <type id="railway.subway" priority="18" numLanes="1" speed="27.78" allow="rail_urban" oneway="1"/>
    <type id="railway.tram" priority="17" numLanes="1" speed="13.89" allow="tram" oneway="1"/>

    <edge id=":12284055_0" function="internal">
        <lane id=":12284055_0_0" index="0" disallow="tram rail_urban rail rail_electric ship" speed="4.69" length="4.11" shape="1325.23,856.58 1322.56,853.46"/>
    </edge>
    <edge id=":12284055_1" function="internal">
        <lane id=":12284055_1_0" index="0" allow="delivery bicycle pedestrian" speed="9.72" length="9.68" shape="1325.23,856.58 1322.45,857.20 1320.37,857.10 1318.38,857.19 1315.88,858.34"/>
    </edge>
    <edge id=":12284055_2" function="internal">
        <lane id=":12284055_2_0" index="0" disallow="tram rail_urban rail rail_electric ship" speed="3.65" length="2.34" shape="1324.13,853.57 1322.72,853.30 1322.04,852.71"/>
    </edge>
    <edge id=":12284055_10" function="internal">
        <lane id=":12284055_10_0" index="0" disallow="tram rail_urban rail rail_electric ship" speed="3.65" length="2.34" shape="1322.04,852.71 1322.10,851.82 1322.89,850.62"/>
    </edge>
    <edge id=":12284055_3" function="internal">
        <lane id=":12284055_3_0" index="0" disallow="tram rail_urban rail rail_electric ship" speed="5.94" length="6.37" shape="1317.07,843.91 1318.37,845.83 1319.58,847.08 1320.71,847.68 1321.75,847.63"/>
    </edge>
    <edge id=":12284055_4" function="internal">
        <lane id=":12284055_4_0" index="0" disallow="tram rail_urban rail rail_electric ship" speed="13.89" length="10.74" shape="1317.07,843.91 1318.87,846.67 1320.19,848.51 1321.33,850.44 1322.56,853.46"/>
        <lane id=":12284055_4_1" index="1" disallow="tram rail_urban rail rail_electric ship" speed="13.89" length="10.74" shape="1314.33,845.56 1316.03,848.15 1317.29,849.87 1318.38,851.68 1319.54,854.52"/>
    </edge>
    <edge id=":12284055_6" function="internal">
        <lane id=":12284055_6_0" index="0" allow="delivery bicycle pedestrian" speed="8.10" length="14.04" shape="1314.33,845.56 1316.64,850.06 1317.68,853.68 1317.42,856.44 1315.88,858.34"/>
    </edge>
    <edge id=":12284055_7" function="internal">
        <lane id=":12284055_7_0" index="0" disallow="tram rail_urban rail rail_electric ship" speed="9.72" length="10.18" shape="1314.10,855.67 1316.56,853.97 1318.28,852.79 1320.11,851.79 1322.89,850.62"/>
    </edge>
    <edge id=":12284055_8" function="internal">
        <lane id=":12284055_8_0" index="0" disallow="tram rail_urban rail rail_electric ship" speed="5.13" length="6.21" shape="1314.10,855.67 1316.22,854.42 1317.83,853.80 1318.94,853.84 1319.54,854.52"/>
    </edge>
    <edge id=":12284055_9" function="internal">
        <lane id=":12284055_9_0" index="0" allow="delivery bicycle pedestrian" speed="3.65" length="4.67" shape="1314.10,855.67 1315.54,855.67 1316.32,856.12 1316.43,857.00 1315.88,858.34"/>
    </edge>
    <edge id=":139768174_0" function="internal">
        <lane id=":139768174_0_0" index="0" disallow="tram rail_urban rail rail_electric ship" speed="3.65" length="4.67" shape="1469.75,835.65 1470.76,834.62 1471.62,834.37 1472.33,834.91 1472.90,836.23"/>
    </edge>
    <edge id=":139768180_0" function="internal">
        <lane id=":139768180_0_0" index="0" disallow="tram rail_urban rail rail_electric ship" speed="3.65" length="4.67" shape="1353.94,870.84 1352.77,870.00 1352.39,869.19 1352.82,868.40 1354.04,867.64"/>
    </edge>
    <edge id=":139768262_0" function="internal">
        <lane id=":139768262_0_0" index="0" disallow="tram rail_urban rail rail_electric ship" speed="7.68" length="10.15" shape="1405.22,871.60 1402.89,872.26 1401.07,873.64 1399.74,875.74 1398.92,878.58"/>
    </edge>
    <edge id=":139768262_1" function="internal">
        <lane id=":139768262_1_0" index="0" disallow="tram rail_urban rail rail_electric ship" speed="13.89" length="14.29" shape="1405.22,871.60 1401.60,871.93 1398.10,872.11 1394.59,872.14 1390.95,872.07"/>
    </edge>
    <edge id=":139768262_2" function="internal">
        <lane id=":139768262_2_0" index="0" disallow="tram rail_urban rail rail_electric ship" speed="3.65" length="2.34" shape="1405.22,871.60 1403.94,870.94 1403.46,870.19"/>
    </edge>
    <edge id=":139768262_9" function="internal">
        <lane id=":139768262_9_0" index="0" disallow="tram rail_urban rail rail_electric ship" speed="3.65" length="2.34" shape="1403.46,870.19 1403.77,869.35 1404.87,868.42"/>
    </edge>
    <edge id=":139768262_3" function="internal">
        <lane id=":139768262_3_0" index="0" disallow="tram rail_urban rail rail_electric ship" speed="13.89" length="13.83" shape="1391.06,868.87 1394.63,868.95 1397.97,868.92 1401.32,868.75 1404.87,868.42"/>
    </edge>
    <edge id=":139768262_4" function="internal">
        <lane id=":139768262_4_0" index="0" disallow="tram rail_urban rail rail_electric ship" speed="7.77" length="5.75" shape="1391.06,868.87 1395.12,869.59 1396.46,870.52"/>
    </edge>
    <edge id=":139768262_5" function="internal">
        <lane id=":139768262_5_0" index="0" disallow="tram rail_urban rail rail_electric ship" speed="3.65" length="2.34" shape="1391.06,868.87 1392.23,869.71 1392.60,870.52"/>
    </edge>
    <edge id=":139768262_10" function="internal">
        <lane id=":139768262_10_0" index="0" disallow="tram rail_urban rail rail_electric ship" speed="7.77" length="9.01" shape="1396.46,870.52 1397.79,871.45 1399.06,874.45 1398.92,878.58"/>
    </edge>
    <edge id=":139768262_11" function="internal">
        <lane id=":139768262_11_0" index="0" disallow="tram rail_urban rail rail_electric ship" speed="3.65" length="2.34" shape="1392.60,870.52 1392.18,871.31 1390.95,872.07"/>
    </edge>
    <edge id=":139768262_6" function="internal">
        <lane id=":139768262_6_0" index="0" disallow="tram rail_urban rail rail_electric ship" speed="6.22" length="9.05" shape="1395.77,878.02 1395.85,875.49 1395.08,873.65 1393.44,872.51 1390.95,872.07"/>
    </edge>
    <edge id=":139768262_7" function="internal">
        <lane id=":139768262_7_0" index="0" disallow="tram rail_urban rail rail_electric ship" speed="9.02" length="14.29" shape="1395.77,878.02 1396.92,874.13 1398.82,871.24 1401.47,869.34 1404.87,868.42"/>
    </edge>
    <edge id=":139768262_8" function="internal">
        <lane id=":139768262_8_0" index="0" disallow="tram rail_urban rail rail_electric ship" speed="3.65" length="4.67" shape="1395.77,878.02 1396.77,876.97 1397.63,876.72 1398.34,877.25 1398.92,878.58"/>
    </edge>
    <edge id=":139768267_0" function="internal">
        <lane id=":139768267_0_0" index="0" disallow="tram rail_urban rail rail_electric ship" speed="13.89" length="13.86" shape="1392.39,943.64 1388.97,942.61 1385.72,941.75 1382.45,940.99 1378.95,940.27"/>
    </edge>
    <edge id=":139768267_1" function="internal">
        <lane id=":139768267_1_0" index="0" disallow="tram rail_urban rail rail_electric ship" speed="8.36" length="5.58" shape="1392.39,943.64 1389.05,942.03 1387.79,940.65"/>
    </edge>
    <edge id=":139768267_2" function="internal">
        <lane id=":139768267_2_0" index="0" disallow="tram rail_urban rail rail_electric ship" speed="3.65" length="2.34" shape="1392.39,943.64 1391.48,942.51 1391.34,941.63"/>
    </edge>
    <edge id=":139768267_9" function="internal">
        <lane id=":139768267_9_0" index="0" disallow="tram rail_urban rail rail_electric ship" speed="8.36" length="8.50" shape="1387.79,940.65 1386.89,939.66 1385.89,936.54 1386.06,932.66"/>
    </edge>
    <edge id=":139768267_10" function="internal">
        <lane id=":139768267_10_0" index="0" disallow="tram rail_urban rail rail_electric ship" speed="3.65" length="2.34" shape="1391.34,941.63 1391.96,940.99 1393.35,940.58"/>
    </edge>
    <edge id=":139768267_3" function="internal">
        <lane id=":139768267_3_0" index="0" disallow="tram rail_urban rail rail_electric ship" speed="6.94" length="9.38" shape="1389.21,933.22 1389.09,935.83 1389.73,937.93 1391.15,939.51 1393.35,940.58"/>
    </edge>
    <edge id=":139768267_4" function="internal">
        <lane id=":139768267_4_0" index="0" disallow="tram rail_urban rail rail_electric ship" speed="7.98" length="14.25" shape="1389.21,933.22 1387.99,936.93 1385.87,939.35 1382.86,940.46 1378.95,940.27"/>
    </edge>
    <edge id=":139768267_5" function="internal">
        <lane id=":139768267_5_0" index="0" disallow="tram rail_urban rail rail_electric ship" speed="3.65" length="4.67" shape="1389.21,933.22 1388.21,934.26 1387.36,934.51 1386.64,933.98 1386.06,932.66"/>
    </edge>
    <edge id=":139768267_6" function="internal">
        <lane id=":139768267_6_0" index="0" disallow="tram rail_urban rail rail_electric ship" speed="6.48" length="9.03" shape="1379.55,937.13 1382.03,937.25 1383.94,936.54 1385.28,935.01 1386.06,932.66"/>
    </edge>
    <edge id=":139768267_7" function="internal">
        <lane id=":139768267_7_0" index="0" disallow="tram rail_urban rail rail_electric ship" speed="13.89" length="14.23" shape="1379.55,937.13 1383.11,937.86 1386.50,938.65 1389.87,939.54 1393.35,940.58"/>
    </edge>
    <edge id=":139768267_8" function="internal">
        <lane id=":139768267_8_0" index="0" disallow="tram rail_urban rail rail_electric ship" speed="3.65" length="2.34" shape="1379.55,937.13 1380.58,938.14 1380.82,939.00"/>
    </edge>
    <edge id=":139768267_11" function="internal">
        <lane id=":139768267_11_0" index="0" disallow="tram rail_urban rail rail_electric ship" speed="3.65" length="2.34" shape="1380.82,939.00 1380.28,939.71 1378.95,940.27"/>
    </edge>
    <edge id=":139768274_0" function="internal">
        <lane id=":139768274_0_0" index="0" disallow="tram rail_urban rail rail_electric ship" speed="6.45" length="9.04" shape="1365.37,937.66 1362.88,937.54 1360.98,938.25 1359.65,939.79 1358.90,942.16"/>
    </edge>
    <edge id=":139768274_1" function="internal">
        <lane id=":139768274_1_0" index="0" disallow="tram rail_urban rail rail_electric ship" speed="7.96" length="14.29" shape="1365.37,937.66 1361.65,936.38 1359.27,934.22 1358.22,931.18 1358.51,927.26"/>
    </edge>
    <edge id=":139768274_2" function="internal">
        <lane id=":139768274_2_0" index="0" disallow="tram rail_urban rail rail_electric ship" speed="3.65" length="4.67" shape="1365.37,937.66 1364.34,936.65 1364.10,935.79 1364.64,935.08 1365.97,934.52"/>
    </edge>
    <edge id=":139768274_3" function="internal">
        <lane id=":139768274_3_0" index="0" disallow="tram rail_urban rail rail_electric ship" speed="6.45" length="9.03" shape="1361.64,927.94 1361.46,930.42 1362.12,932.34 1363.62,933.71 1365.97,934.52"/>
    </edge>
    <edge id=":139768274_4" function="internal">
        <lane id=":139768274_4_0" index="0" disallow="tram rail_urban rail rail_electric ship" speed="13.89" length="14.48" shape="1361.64,927.94 1358.90,942.16"/>
    </edge>
    <edge id=":139768274_5" function="internal">
        <lane id=":139768274_5_0" index="0" disallow="tram rail_urban rail rail_electric ship" speed="3.65" length="2.34" shape="1361.64,927.94 1360.60,928.94 1359.73,929.16"/>
    </edge>
    <edge id=":139768274_9" function="internal">
        <lane id=":139768274_9_0" index="0" disallow="tram rail_urban rail rail_electric ship" speed="3.65" length="2.34" shape="1359.73,929.16 1359.04,928.60 1358.51,927.26"/>
    </edge>
    <edge id=":139768274_6" function="internal">
        <lane id=":139768274_6_0" index="0" disallow="tram rail_urban rail rail_electric ship" speed="13.89" length="14.64" shape="1355.74,941.63 1358.51,927.26"/>
    </edge>
    <edge id=":139768274_7" function="internal">
        <lane id=":139768274_7_0" index="0" disallow="tram rail_urban rail rail_electric ship" speed="7.96" length="6.22" shape="1355.74,941.63 1356.93,937.89 1358.43,936.16"/>
    </edge>
    <edge id=":139768274_8" function="internal">
        <lane id=":139768274_8_0" index="0" disallow="tram rail_urban rail rail_electric ship" speed="3.65" length="2.34" shape="1355.74,941.63 1356.73,940.58 1357.58,940.32"/>
    </edge>
    <edge id=":139768274_10" function="internal">
        <lane id=":139768274_10_0" index="0" disallow="tram rail_urban rail rail_electric ship" speed="7.96" length="8.07" shape="1358.43,936.16 1359.03,935.46 1362.05,934.33 1365.97,934.52"/>
    </edge>
    <edge id=":139768274_11" function="internal">
        <lane id=":139768274_11_0" index="0" disallow="tram rail_urban rail rail_electric ship" speed="3.65" length="2.34" shape="1357.58,940.32 1358.31,940.84 1358.90,942.16"/>
    </edge>
    <edge id=":139768281_0" function="internal">
        <lane id=":139768281_0_0" index="0" disallow="tram rail_urban rail rail_electric ship" speed="3.65" length="4.67" shape="1360.94,916.19 1361.98,915.19 1362.84,914.97 1363.54,915.54 1364.06,916.88"/>
    </edge>
    <edge id=":139768287_0" function="internal">
        <lane id=":139768287_0_0" index="0" disallow="tram rail_urban rail rail_electric ship" speed="3.65" length="4.67" shape="1356.25,958.04 1355.27,959.09 1354.41,959.36 1353.69,958.83 1353.10,957.52"/>
    </edge>
    <edge id=":139768294_0" function="internal">
        <lane id=":139768294_0_0" index="0" disallow="tram rail_urban rail rail_electric ship" speed="3.65" length="4.67" shape="1417.90,948.29 1418.80,949.41 1418.94,950.29 1418.32,950.93 1416.94,951.34"/>
    </edge>
    <edge id=":1529891793_0" function="internal">
        <lane id=":1529891793_0_0" index="0" disallow="tram rail_urban rail rail_electric ship" speed="3.65" length="4.67" shape="510.94,684.67 509.59,684.18 509.01,683.49 509.21,682.62 510.19,681.56"/>
    </edge>
    <edge id=":1529891837_0" function="internal">
        <lane id=":1529891837_0_0" index="0" disallow="tram rail_urban rail rail_electric ship" speed="3.65" length="4.67" shape="488.85,816.80 487.52,816.24 486.98,815.52 487.23,814.66 488.26,813.66"/>
    </edge>
    <edge id=":1529915195_0" function="internal">
        <lane id=":1529915195_0_0" index="0" disallow="tram rail_urban rail rail_electric ship" speed="6.21" length="9.05" shape="648.72,787.66 648.20,785.18 647.01,783.58 645.16,782.87 642.63,783.03"/>
    </edge>
    <edge id=":1529915195_1" function="internal">
        <lane id=":1529915195_1_0" index="0" disallow="tram rail_urban rail rail_electric ship" speed="8.20" length="14.57" shape="648.72,787.66 649.00,783.56 650.44,780.52 653.02,778.53 656.74,777.59"/>
    </edge>
    <edge id=":1529915195_2" function="internal">
        <lane id=":1529915195_2_0" index="0" disallow="tram rail_urban rail rail_electric ship" speed="3.65" length="4.67" shape="648.72,787.66 649.44,786.41 650.21,785.96 651.04,786.31 651.91,787.46"/>
    </edge>
    <edge id=":1529915195_3" function="internal">
        <lane id=":1529915195_3_0" index="0" disallow="tram rail_urban rail rail_electric ship" speed="6.75" length="9.54" shape="657.05,780.77 654.66,781.39 653.00,782.71 652.09,784.73 651.91,787.46"/>
    </edge>
    <edge id=":1529915195_4" function="internal">
        <lane id=":1529915195_4_0" index="0" disallow="tram rail_urban rail rail_electric ship" speed="13.89" length="14.61" shape="657.05,780.77 653.38,781.18 649.81,781.69 646.24,782.31 642.63,783.03"/>
    </edge>
    <edge id=":1529915195_5" function="internal">
        <lane id=":1529915195_5_0" index="0" disallow="tram rail_urban rail rail_electric ship" speed="3.65" length="2.34" shape="657.05,780.77 655.78,780.09 655.30,779.33"/>
    </edge>
    <edge id=":1529915195_9" function="internal">
        <lane id=":1529915195_9_0" index="0" disallow="tram rail_urban rail rail_electric ship" speed="3.65" length="2.34" shape="655.30,779.33 655.62,778.50 656.74,777.59"/>
    </edge>
    <edge id=":1529915195_6" function="internal">
        <lane id=":1529915195_6_0" index="0" disallow="tram rail_urban rail rail_electric ship" speed="13.89" length="14.97" shape="641.96,779.91 645.63,779.17 649.32,778.53 653.02,778.00 656.74,777.59"/>
    </edge>
    <edge id=":1529915195_7" function="internal">
        <lane id=":1529915195_7_0" index="0" disallow="tram rail_urban rail rail_electric ship" speed="7.76" length="6.22" shape="641.96,779.91 646.09,779.63 648.03,780.37"/>
    </edge>
    <edge id=":1529915195_8" function="internal">
        <lane id=":1529915195_8_0" index="0" disallow="tram rail_urban rail rail_electric ship" speed="3.65" length="2.34" shape="641.96,779.91 643.30,780.44 643.86,781.14"/>
    </edge>
    <edge id=":1529915195_10" function="internal">
        <lane id=":1529915195_10_0" index="0" disallow="tram rail_urban rail rail_electric ship" speed="7.76" length="8.57" shape="648.03,780.37 649.13,780.80 651.07,783.41 651.91,787.46"/>
    </edge>
    <edge id=":1529915195_11" function="internal">
        <lane id=":1529915195_11_0" index="0" disallow="tram rail_urban rail rail_electric ship" speed="3.65" length="2.34" shape="643.86,781.14 643.63,782.00 642.63,783.03"/>
    </edge>
    <edge id=":1529915206_0" function="internal">
        <lane id=":1529915206_0_0" index="0" disallow="tram rail_urban rail rail_electric ship" speed="3.65" length="4.67" shape="693.38,840.22 694.73,840.71 695.31,841.40 695.11,842.27 694.13,843.33"/>
    </edge>
    <edge id=":170831396_0" function="internal">
        <lane id=":170831396_0_0" index="0" disallow="tram rail_urban rail rail_electric ship" speed="3.65" length="4.67" shape="1535.58,1423.64 1535.13,1425.01 1534.47,1425.61 1533.59,1425.44 1532.49,1424.50"/>
    </edge>
    <edge id=":2371415476_0" function="internal">
        <lane id=":2371415476_0_0" index="0" disallow="tram rail_urban rail rail_electric ship" speed="13.89" length="5.29" shape="1250.86,730.06 1252.42,730.25 1253.48,730.43 1254.53,730.68 1256.04,731.10"/>
    </edge>
    <edge id=":2371415490_0" function="internal">
        <lane id=":2371415490_0_0" index="0" allow="bicycle pedestrian" speed="4.17" length="5.17" width="2.00" shape="1289.29,875.61 1289.06,873.96 1288.46,873.00 1287.50,872.73 1286.19,873.16"/>
    </edge>
    <edge id=":2371415490_1" function="internal">
        <lane id=":2371415490_1_0" index="0" allow="delivery bicycle pedestrian" speed="5.56" length="6.41" shape="1289.29,875.61 1289.29,873.73 1289.53,872.42 1290.15,871.25 1291.30,869.77"/>
    </edge>
    <edge id=":2371415490_2" function="internal">
        <lane id=":2371415490_2_0" index="0" allow="delivery bicycle pedestrian" speed="3.65" length="4.67" shape="1289.29,875.61 1290.06,874.39 1290.85,873.96 1291.66,874.34 1292.49,875.52"/>
    </edge>
    <edge id=":2371415490_3" function="internal">
        <lane id=":2371415490_3_0" index="0" allow="delivery bicycle pedestrian" speed="5.56" length="4.08" shape="1293.77,871.81 1293.03,872.75 1292.64,873.50 1292.49,874.33 1292.49,875.52"/>
    </edge>
    <edge id=":2371415490_4" function="internal">
        <lane id=":2371415490_4_0" index="0" allow="bicycle pedestrian" speed="4.17" length="8.06" width="2.00" shape="1293.77,871.81 1292.03,873.02 1290.34,872.94 1288.47,872.62 1286.19,873.16"/>
    </edge>
    <edge id=":2371415490_5" function="internal">
        <lane id=":2371415490_5_0" index="0" allow="delivery bicycle pedestrian" speed="3.65" length="4.67" shape="1293.77,871.81 1292.39,872.22 1291.52,872.02 1291.15,871.20 1291.30,869.77"/>
    </edge>
    <edge id=":2371415506_0" function="internal">
        <lane id=":2371415506_0_0" index="0" allow="delivery bicycle pedestrian" speed="3.65" length="4.67" shape="1211.25,938.39 1209.82,938.17 1209.12,937.62 1209.15,936.72 1209.89,935.49"/>
    </edge>
    <edge id=":2373042522_0" function="internal">
        <lane id=":2373042522_0_0" index="0" disallow="tram rail_urban rail rail_electric ship" speed="3.78" length="5.18" shape="837.22,747.91 837.37,749.50 836.96,750.41 835.99,750.62 834.47,750.14"/>
    </edge>
    <edge id=":2373042524_0" function="internal">
        <lane id=":2373042524_0_0" index="0" allow="delivery bicycle pedestrian" speed="5.56" length="4.83" shape="859.48,807.24 858.96,805.91 858.46,805.04 857.73,804.37 856.53,803.63"/>
    </edge>
    <edge id=":2373042524_1" function="internal">
        <lane id=":2373042524_1_0" index="0" allow="delivery bicycle pedestrian" speed="5.56" length="8.52" shape="859.48,807.24 859.04,805.29 859.17,803.31 859.87,801.30 861.13,799.25"/>
    </edge>
    <edge id=":2373042524_2" function="internal">
        <lane id=":2373042524_2_0" index="0" allow="delivery bicycle pedestrian" speed="3.65" length="4.67" shape="859.48,807.24 859.81,805.84 860.42,805.18 861.31,805.28 862.48,806.12"/>
    </edge>
    <edge id=":2373042524_3" function="internal">
        <lane id=":2373042524_3_0" index="0" allow="delivery bicycle pedestrian" speed="5.56" length="5.33" shape="863.70,801.16 862.85,802.50 862.37,803.77 862.24,804.98 862.48,806.12"/>
    </edge>
    <edge id=":2373042524_4" function="internal">
        <lane id=":2373042524_4_0" index="0" allow="delivery bicycle pedestrian" speed="5.56" length="8.38" shape="863.70,801.16 861.97,803.02 860.20,804.06 858.39,804.26 856.53,803.63"/>
    </edge>
    <edge id=":2373042524_5" function="internal">
        <lane id=":2373042524_5_0" index="0" allow="delivery bicycle pedestrian" speed="3.65" length="4.67" shape="863.70,801.16 862.34,801.64 861.46,801.48 861.06,800.69 861.13,799.25"/>
    </edge>
    <edge id=":2373042524_6" function="internal">
        <lane id=":2373042524_6_0" index="0" allow="delivery bicycle pedestrian" speed="4.69" length="3.75" shape="858.07,800.83 858.76,801.01 859.50,800.80 860.29,800.22 861.13,799.25"/>
    </edge>
    <edge id=":2373042524_7" function="internal">
        <lane id=":2373042524_7_0" index="0" allow="delivery bicycle pedestrian" speed="5.56" length="7.14" shape="858.07,800.83 859.86,801.91 860.95,802.89 861.71,804.17 862.48,806.12"/>
    </edge>
    <edge id=":2373042524_8" function="internal">
        <lane id=":2373042524_8_0" index="0" allow="delivery bicycle pedestrian" speed="3.65" length="4.67" shape="858.07,800.83 858.74,802.12 858.70,803.01 857.96,803.52 856.53,803.63"/>
    </edge>
    <edge id=":2373042527_0" function="internal">
        <lane id=":2373042527_0_0" index="0" disallow="tram rail_urban rail rail_electric ship" speed="13.89" length="9.39" shape="888.87,867.52 880.16,871.06"/>
    </edge>
    <edge id=":2373042527_1" function="internal">
        <lane id=":2373042527_1_0" index="0" allow="delivery bicycle pedestrian" speed="6.84" length="5.13" shape="888.87,867.52 886.13,868.20 883.85,867.83"/>
    </edge>
    <edge id=":2373042527_2" function="internal">
        <lane id=":2373042527_2_0" index="0" disallow="tram rail_urban rail rail_electric ship" speed="3.65" length="2.34" shape="888.87,867.52 887.45,867.23 886.78,866.64"/>
    </edge>
    <edge id=":2373042527_9" function="internal">
        <lane id=":2373042527_9_0" index="0" allow="delivery bicycle pedestrian" speed="6.84" length="5.13" shape="883.85,867.83 882.02,866.41 880.65,863.95"/>
    </edge>
    <edge id=":2373042527_10" function="internal">
        <lane id=":2373042527_10_0" index="0" disallow="tram rail_urban rail rail_electric ship" speed="3.65" length="2.34" shape="886.78,866.64 886.85,865.75 887.66,864.56"/>
    </edge>
    <edge id=":2373042527_3" function="internal">
        <lane id=":2373042527_3_0" index="0" disallow="tram rail_urban rail rail_electric ship" speed="5.02" length="5.02" shape="883.64,862.81 884.31,864.01 885.21,864.71 886.32,864.89 887.66,864.56"/>
    </edge>
    <edge id=":2373042527_4" function="internal">
        <lane id=":2373042527_4_0" index="0" disallow="tram rail_urban rail rail_electric ship" speed="6.92" length="10.16" shape="883.64,862.81 884.27,865.54 883.90,867.83 882.53,869.67 880.16,871.06"/>
    </edge>
    <edge id=":2373042527_5" function="internal">
        <lane id=":2373042527_5_0" index="0" allow="delivery bicycle pedestrian" speed="3.65" length="4.67" shape="883.64,862.81 883.32,864.21 882.72,864.87 881.83,864.78 880.65,863.95"/>
    </edge>
    <edge id=":2373042527_6" function="internal">
        <lane id=":2373042527_6_0" index="0" allow="delivery bicycle pedestrian" speed="5.11" length="5.09" shape="878.96,868.10 880.13,867.40 880.80,866.48 880.97,865.33 880.65,863.95"/>
    </edge>
    <edge id=":2373042527_7" function="internal">
        <lane id=":2373042527_7_0" index="0" disallow="tram rail_urban rail rail_electric ship" speed="13.89" length="9.40" shape="878.96,868.10 887.66,864.56"/>
    </edge>
    <edge id=":2373042527_8" function="internal">
        <lane id=":2373042527_8_0" index="0" disallow="tram rail_urban rail rail_electric ship" speed="3.65" length="2.34" shape="878.96,868.10 880.37,868.38 881.04,868.97"/>
    </edge>
    <edge id=":2373042527_11" function="internal">