<configuration> 
<input> 
<net-file value="santry.net.xml"/>

 <route-files value="santry.rou.xml"/>
 </input>
 <time>
 <begin value="0"/>
 <end value="2000"/> 
</time>
 </configuration>