<?xml version="1.0" encoding="UTF-8"?>
<!-- generated on 2019-06-26 02:19:27.634049 by $Id$
  options: -n santry.net.xml -r santry.rou.xml -e 50 -l
-->
<routes xmlns:xsi="http://www.w3.org/2001/XMLSchema-instance" xsi:noNamespaceSchemaLocation="http://sumo.dlr.de/xsd/routes_file.xsd">
    <trip id="0" depart="0.00" from="234191443" to="14365484"/>
    <trip id="1" depart="1.00" from="360262991#0" to="698920954#1"/>
    <trip id="2" depart="2.00" from="-27200603" to="526626290#0"/>
    <trip id="3" depart="3.00" from="50271770" to="139567713#1"/>
    <trip id="4" depart="4.00" from="698920954#1" to="139567713#1"/>
    <trip id="5" depart="5.00" from="-326974427#5" to="-234191437"/>
    <trip id="6" depart="6.00" from="50271769#0" to="526626290#0"/>
    <trip id="7" depart="7.00" from="50271769#1" to="-234191437"/>
    <trip id="8" depart="8.00" from="526626290#0" to="-7972730#0"/>
    <trip id="9" depart="9.00" from="360262991#0" to="-7972730#0"/>
    <trip id="10" depart="10.00" from="-7972730#1" to="-360262991#1"/>
    <trip id="11" depart="11.00" from="50271769#0" to="-234191445#0"/>
    <trip id="12" depart="12.00" from="234191449#2" to="27200603"/>
    <trip id="13" depart="13.00" from="-526626291#3" to="-526626291#2"/>
    <trip id="14" depart="14.00" from="-326974427#2" to="-7972730#0"/>
    <trip id="15" depart="15.00" from="-14365482#0" to="-360262991#0"/>
    <trip id="16" depart="16.00" from="-50271769#1" to="326974427#5"/>
    <trip id="17" depart="17.00" from="-526626290#1" to="-360262991#0"/>
    <trip id="18" depart="18.00" from="-526626290#1" to="3818670"/>
    <trip id="19" depart="19.00" from="7972730#0" to="228646122"/>
    <trip id="20" depart="20.00" from="7972730#0" to="-326974427#5"/>
    <trip id="21" depart="21.00" from="326974427#5" to="139574271"/>
    <trip id="22" depart="22.00" from="-526626290#1" to="27200603"/>
    <trip id="23" depart="23.00" from="234191437" to="-360262991#0"/>
    <trip id="24" depart="24.00" from="-27200603" to="271225799#0"/>
    <trip id="25" depart="25.00" from="360262991#0" to="-7972730#0"/>
    <trip id="26" depart="26.00" from="7972730#0" to="-326974427#4"/>
    <trip id="27" depart="27.00" from="360262991#0" to="139567713#1"/>
    <trip id="28" depart="28.00" from="326974427#0" to="-360262991#0"/>
    <trip id="29" depart="29.00" from="-27200603" to="360262991#1"/>
    <trip id="30" depart="30.00" from="27201794#0" to="27200603"/>
    <trip id="31" depart="31.00" from="360262991#0" to="-526626291#2"/>
    <trip id="32" depart="32.00" from="7972730#0" to="526626290#1"/>
    <trip id="33" depart="33.00" from="234191449#2" to="228646122"/>
    <trip id="34" depart="34.00" from="378177316#0" to="526626290#0"/>
    <trip id="35" depart="35.00" from="360262991#0" to="-7972730#1"/>
    <trip id="36" depart="36.00" from="271225799#0" to="-326974427#4"/>
    <trip id="37" depart="37.00" from="-526626290#1" to="526626290#1"/>
    <trip id="38" depart="38.00" from="27201794#0" to="-139567713#0"/>
    <trip id="39" depart="39.00" from="-526626291#2" to="326974427#10"/>
    <trip id="40" depart="40.00" from="-27201826#1" to="698920954#0"/>
    <trip id="41" depart="41.00" from="-526626291#3" to="27200603"/>
    <trip id="42" depart="42.00" from="50271769#1" to="526626290#1"/>
    <trip id="43" depart="43.00" from="378177316#0" to="3818670"/>
    <trip id="44" depart="44.00" from="234191443" to="-360262991#1"/>
    <trip id="45" depart="45.00" from="7972730#0" to="-360262991#0"/>
    <trip id="46" depart="46.00" from="360262991#0" to="-7972730#2"/>
    <trip id="47" depart="47.00" from="650056414" to="-326974427#5"/>
    <trip id="48" depart="48.00" from="-27200603" to="-650056414"/>
    <trip id="49" depart="49.00" from="326974427#5" to="3818670"/>
</routes>
